<?xml version="1.0" encoding="UTF-8" standalone="no"?>
<vehicles>
    <vehicle id="1">
        <route>[0, 1]</route>
        <cargo large_boxes="0" medium_boxes="0" small_boxes="1"/>
    </vehicle>
    <vehicle id="2">
        <route>[4, 9]</route>
        <cargo large_boxes="0" medium_boxes="4" small_boxes="4"/>
    </vehicle>
    <vehicle id="3">
        <route>[7, 9]</route>
        <cargo large_boxes="4" medium_boxes="2" small_boxes="1"/>
    </vehicle>
    <vehicle id="4">
        <route>[12, 14]</route>
        <cargo large_boxes="2" medium_boxes="2" small_boxes="3"/>
    </vehicle>
</vehicles>
